[General]
#scheduler-class = "inet::cRealTimeScheduler" #so that speed appears realistic
#debug-on-errors = true
#tkenv-plugin-path = ../../../etc/plugins
#tkenv-default-run=1

sim-time-limit = 200second

**.constraintAreaMinX = 0m
**.constraintAreaMinY = 0m
**.constraintAreaMinZ = 0m
**.constraintAreaMaxX = 600m
**.constraintAreaMaxY = 400m
**.constraintAreaMaxZ = 0m
#**.updateInterval = 0.1s # test with 0s too, and let getCurrentPosition update the display string from a test module
**.updateInterval = 0.2s # test with 0s too, and let getCurrentPosition update the display string from a test module

######### 0.RSPF  1.CNPF  2.CDPF  3.HPF  4.EPDS  5.EPDS_TSP ##########
[Config CompareAll]
network = ParcelDeliveryNetwork
description = "Multiple drones with different algorithms"

*.numdrones = 3       
**.drone*.mobility.typename = "DroneNetMob"
**.drone[*].mobility.ndst = 50  # number of destination
**.drone[*].mobility.nd = 8
**.drone[*].mobility.npar = 100  # number of parcels

**.drone[*].mobility.initFromDisplayString = false
**.drone[*].mobility.changeInterval = truncnormal(2s, 0.5s)
**.drone[*].mobility.angleDelta = normal(0deg, 30deg)
**.drone[*].mobility.speed = 10mps
**.drone[*].mobility.remainingBattery = 12800
**.drone[*].mobility.weightCapacity = 200

# 드론별 개별 알고리즘 설정
**.drone[0].mobility.parcelSelectionMethod = 0  # Nearest Parcel First
**.drone[1].mobility.parcelSelectionMethod = 1  # Heaviest Parcel First
**.drone[2].mobility.parcelSelectionMethod = 2  # Balanced Parcel First

**.drone[0].mobility.initialX = 0m
**.drone[0].mobility.initialY = 0m
**.drone[0].mobility.initialZ = 0m

**.drone[1].mobility.initialX = 0m
**.drone[1].mobility.initialY = 0m
**.drone[1].mobility.initialZ = 0m

**.drone[2].mobility.initialX = 0m
**.drone[2].mobility.initialY = 0m
**.drone[2].mobility.initialZ = 0m

[Config Basic]
network = ParcelDeliveryNetwork

description = "1 drones, 30 destinations, 30 parcels, "
*.numdrones = 1       # number of drones
**.drone*.mobility.typename = "DroneNetMob"
#**.drone[*].mobility.ndst = ${10,20,25,30}   # number of destination
**.drone[*].mobility.ndst = 8   # number of destination
**.drone[*].mobility.nd = 8
**.drone[*].mobility.npar = 30  # number of parcels

**.drone[*].mobility.initFromDisplayString = false
**.drone[*].mobility.changeInterval = truncnormal(2s, 0.5s)
**.drone[*].mobility.angleDelta = normal(0deg, 30deg)
#**.drone[*].mobility.speed = truncnormal(15mps, 5mps)
**.drone[*].mobility.speed = 10mps
**.drone[*].mobility.remainingBattery = 12800

# the Maximum delivery capacity of drone.   but for the realistic and various simulation, we can assume that drone have various capacity of delivery parcel weight.
#**.drone[*].mobility.weightCapacity = 25  
#Invalid value: But to run with 1 drone and navigate to all destinations. 0610 
**.drone[*].mobility.weightCapacity = 100
**.drone[*].mobility.parcelSelectionMethod = 2        
**.drone[*].mobility.initialX = 0m
**.drone[*].mobility.initialY = 0m
**.drone[*].mobility.initialZ = 0m
#repeat = 10

######## 0.RSPF  1.CNPF  2.CDPF  3.HPF  4.EPDS  5.EPDS_TSP ##########
[Config BNB]
network = ParcelDeliveryNetwork

description = "1 drones, 10 destinations, 100 parcels, "
*.numdrones = 1       # number of drones
**.drone*.mobility.typename = "DroneNetMob"
**.drone[*].mobility.ndst = 30   # number of destination
**.drone[*].mobility.nd = 8 #what is this?
**.drone[*].mobility.npar = 30  # number of parcels

**.drone[*].mobility.initFromDisplayString = false
**.drone[*].mobility.changeInterval = truncnormal(2s, 0.5s)
**.drone[*].mobility.angleDelta = normal(0deg, 30deg)
#**.drone[*].mobility.speed = truncnormal(15mps, 5mps)
**.drone[*].mobility.speed = 10mps
**.drone[*].mobility.remainingBattery = 480

# the Maximum delivery capacity of drone.   but for the realistic and various simulation, we can assume that drone have various capacity of delivery parcel weight.
#**.drone[*].mobility.weightCapacity = 25  
#Invalid value: But to run with 1 drone and navigate to all destinations. 0610 
**.drone[*].mobility.weightCapacity = 100
**.drone[*].mobility.parcelSelectionMethod = 4        
**.drone[*].mobility.initialX = 0m
**.drone[*].mobility.initialY = 0m
**.drone[*].mobility.initialZ = 0m


[Config DP]
network = ParcelDeliveryNetwork

description = "1 drones, 10 destinations, 100 parcels, "
*.numdrones = 1       # number of drones
**.drone*.mobility.typename = "DroneNetMob"
**.drone[*].mobility.ndst = 30   # number of destination
**.drone[*].mobility.nd = 8
**.drone[*].mobility.npar = 30  # number of parcels

**.drone[*].mobility.initFromDisplayString = false
**.drone[*].mobility.changeInterval = truncnormal(2s, 0.5s)
**.drone[*].mobility.angleDelta = normal(0deg, 30deg)
#**.drone[*].mobility.speed = truncnormal(15mps, 5mps)
**.drone[*].mobility.speed = 10mps
**.drone[*].mobility.remainingBattery = 480

# the Maximum delivery capacity of drone.   but for the realistic and various simulation, we can assume that drone have various capacity of delivery parcel weight.
#**.drone[*].mobility.weightCapacity = 25  
#Invalid value: But to run with 1 drone and navigate to all destinations. 0610 
**.drone[*].mobility.weightCapacity = 100
**.drone[*].mobility.parcelSelectionMethod = 4        
**.drone[*].mobility.initialX = 0m
**.drone[*].mobility.initialY = 0m
**.drone[*].mobility.initialZ = 0m

[Config BasicEnergyGreedy]
network = ParcelDeliveryNetwork

description = "path planning considering energy consumption"
*.numdrones = 1       # number of drones
**.drone*.mobility.typename = "DroneNetMob"
**.drone[*].mobility.ndst = 5   # number of destination
**.drone[*].mobility.nd = 8
**.drone[*].mobility.npar = 30  # number of parcels

**.drone[*].mobility.initFromDisplayString = false
**.drone[*].mobility.changeInterval = truncnormal(2s, 0.5s)
**.drone[*].mobility.angleDelta = normal(0deg, 30deg)
#**.drone[*].mobility.speed = truncnormal(15mps, 5mps)
**.drone[*].mobility.speed = 10mps
**.drone[*].mobility.remainingBattery = 12800

# the Maximum delivery capacity of drone.   but for the realistic and various simulation, we can assume that drone have various capacity of delivery parcel weight.
#**.drone[*].mobility.weightCapacity = 25  
#Invalid value: But to run with 1 drone and navigate to all destinations. 0610 
**.drone[*].mobility.weightCapacity = 100
**.drone[*].mobility.parcelSelectionMethod = 4
**.drone[*].mobility.initialX = 0m
**.drone[*].mobility.initialY = 0m
**.drone[*].mobility.initialZ = 0m

[Config BattaryBasedBNB]
network = ParcelDeliveryNetwork

description = "path planning considering energy consumption"
*.numdrones = 1       # number of drones
**.drone*.mobility.typename = "DroneNetMob"
**.drone[*].mobility.ndst = 5   # number of destination
**.drone[*].mobility.nd = 8
**.drone[*].mobility.npar = 30  # number of parcels

**.drone[*].mobility.initFromDisplayString = false
**.drone[*].mobility.changeInterval = truncnormal(2s, 0.5s)
**.drone[*].mobility.angleDelta = normal(0deg, 30deg)
#**.drone[*].mobility.speed = truncnormal(15mps, 5mps)
**.drone[*].mobility.speed = 10mps
**.drone[*].mobility.remainingBattery = 12800

# the Maximum delivery capacity of drone.   but for the realistic and various simulation, we can assume that drone have various capacity of delivery parcel weight.
#**.drone[*].mobility.weightCapacity = 25  
#Invalid value: But to run with 1 drone and navigate to all destinations. 0610 
**.drone[*].mobility.weightCapacity = 100
**.drone[*].mobility.parcelSelectionMethod = 5
**.drone[*].mobility.initialX = 0m
**.drone[*].mobility.initialY = 0m
**.drone[*].mobility.initialZ = 0m

[Config ETDS]
network = ParcelDeliveryNetwork

description = "path planning considering energy consumption"
*.numdrones = 1       # number of drones
**.drone*.mobility.typename = "DroneNetMob"
**.drone[*].mobility.ndst = 5   # number of destination
**.drone[*].mobility.nd = 8
**.drone[*].mobility.npar = 30  # number of parcels

**.drone[*].mobility.initFromDisplayString = false
**.drone[*].mobility.changeInterval = truncnormal(2s, 0.5s)
**.drone[*].mobility.angleDelta = normal(0deg, 30deg)
#**.drone[*].mobility.speed = truncnormal(15mps, 5mps)
**.drone[*].mobility.speed = 10mps
**.drone[*].mobility.remainingBattery = 12800

# the Maximum delivery capacity of drone.   but for the realistic and various simulation, we can assume that drone have various capacity of delivery parcel weight.
#**.drone[*].mobility.weightCapacity = 25  
#Invalid value: But to run with 1 drone and navigate to all destinations. 0610 
**.drone[*].mobility.weightCapacity = 100
**.drone[*].mobility.parcelSelectionMethod = 6
**.drone[*].mobility.initialX = 0m
**.drone[*].mobility.initialY = 0m
**.drone[*].mobility.initialZ = 0m


# added by harrison on July, 9
*.numdst = 6
**.dst*.mobility.typename = "StatNodeMob"
**.dst[0].mobility.initialX = 200m
**.dst[0].mobility.initialY =  100m
**.dst[0].mobility.initialZ = 0m
**.dst[1].mobility.initialX = 100m
**.dst[1].mobility.initialY = 250m
**.dst[1].mobility.initialZ = 0m
**.dst[2].mobility.initialX = 260m
**.dst[2].mobility.initialY = 220m
**.dst[2].mobility.initialZ = 0m
**.dst[3].mobility.initialX = 200m
**.dst[3].mobility.initialY = 330m
**.dst[3].mobility.initialZ = 0m
**.dst[4].mobility.initialX = 400m
**.dst[4].mobility.initialY = 300m
**.dst[4].mobility.initialZ = 0m
**.dst[5].mobility.initialX = 400m
**.dst[5].mobility.initialY = 200m
**.dst[5].mobility.initialZ = 0m
**.dst[*].mobility.initFromDisplayString = false