[General]
sim-time-limit = 2000second

**.constraintAreaMinX = 0m
**.constraintAreaMinY = 0m
**.constraintAreaMinZ = 0m
**.constraintAreaMaxX = 600m
**.constraintAreaMaxY = 400m
**.constraintAreaMaxZ = 0m
#**.updateInterval = 0.1s # test with 0s too, and let getCurrentPosition update the display string from a test module
**.updateInterval = 0.5s # test with 0s too, and let getCurrentPosition update the display string from a test module

######### 0.RSPF  1.CNPF  2.CDPF  3.HPF  4.EPDS  5.EPDS_TSP ##########
[Config WeightScaling]
network = ParcelDeliveryNetwork
description = "Multiple drones with different algorithms"
warmup-period = 5s


*.numdrones = 3
**.drone*.mobility.typename = "DroneNetMob"
**.drone[*].mobility.ndst = ${ndst=10..100 step 10}
**.drone[*].mobility.nd = 8
**.drone[*].mobility.npar = 200  # number of parcels

**.drone[*].mobility.alpha_val = ${alpha=0.35..0.75 step 0.05}
**.drone[*].mobility.beta_val = ${1-$alpha}

**.drone[*].mobility.initFromDisplayString = false
**.drone[*].mobility.changeInterval = truncnormal(2s, 0.5s)
**.drone[*].mobility.angleDelta = normal(0deg, 30deg)
**.drone[*].mobility.speed = 10mps
**.drone[*].mobility.remainingBattery = 12800
**.drone[*].mobility.weightCapacity = 200

**.drone[0].mobility.parcelSelectionMethod = 0  # Nearest Parcel First
**.drone[1].mobility.parcelSelectionMethod = 1  # Heaviest Parcel First
**.drone[2].mobility.parcelSelectionMethod = 2  # Balanced Parcel First

**.drone[0].mobility.initialX = 0m
**.drone[0].mobility.initialY = 0m
**.drone[0].mobility.initialZ = 0m

**.drone[1].mobility.initialX = 0m
**.drone[1].mobility.initialY = 0m
**.drone[1].mobility.initialZ = 0m

**.drone[2].mobility.initialX = 0m
**.drone[2].mobility.initialY = 0m
**.drone[2].mobility.initialZ = 0m